9
output.out
C         -0.00092        0.00000       -0.00349
O          0.00503        0.00000        1.40619
C          1.30710        0.00000        1.94737
H         -1.04020        0.00000       -0.32513
H          0.49842        0.88987       -0.40630
H          0.49842       -0.88987       -0.40630
H          1.21033        0.00000        3.03092
H          1.86962       -0.88979        1.63861
H          1.86962        0.88979        1.63861
