6
output.out
C         -0.00209        0.00000        0.00680
C          0.00182        0.00000        1.31965
F          1.13207        0.00000       -0.70905
H         -0.88081        0.00000       -0.62956
H          0.92735        0.00000        1.88121
H         -0.93978        0.00000        1.85133
