14
output.out
C          0.00012        0.00000        0.00001
H          0.00010        0.00000        1.09532
C          1.45778        0.00000       -0.46850
H          1.51362        0.00000       -1.56008
H          1.99164        0.88181       -0.11007
H          1.99164       -0.88181       -0.11007
C         -0.72901       -1.26252       -0.46767
H         -0.75594       -1.31274       -1.55922
H         -0.23244       -2.16518       -0.10789
H         -1.76007       -1.28350       -0.11041
C         -0.72901        1.26252       -0.46767
H         -0.75594        1.31274       -1.55922
H         -1.76007        1.28350       -0.11041
H         -0.23244        2.16518       -0.10789
