8
output.out
C         -0.00433        0.00000       -0.00055
O         -0.00795        0.00000        1.20224
O          1.14353        0.00000       -0.72209
H          1.87633        0.00000       -0.08995
C         -1.21576        0.00000       -0.88780
H         -2.11364        0.00000       -0.27921
H         -1.20229        0.87770       -1.53368
H         -1.20229       -0.87770       -1.53368
