6
output.out
C          0.00000        0.00000        0.00355
C          0.00000        0.00000        1.34329
Cl         1.45054        0.00000       -0.91973
Cl        -1.45054        0.00000       -0.91973
Cl        -1.45054        0.00000        2.26657
Cl         1.45054        0.00000        2.26657
