7
output.out
C         -0.00001        0.00088        0.00826
N          0.00006       -0.00293        1.49015
O          1.07444        0.00041        2.04266
O         -1.07387       -0.03455        2.04268
H          0.01747       -1.04046       -0.30637
H         -0.91251        0.48153       -0.32807
H          0.89582        0.51193       -0.32805
