14
output.out
C          0.00136        0.00000        0.00466
C          0.00181        0.00000        1.53259
C          1.40779        0.00000        2.13697
C          1.40823        0.00000        3.66490
H         -1.01284        0.00000       -0.39666
H          2.42244        0.00000        4.06622
H          0.51379       -0.88025       -0.38878
H          0.51379        0.88025       -0.38878
H          0.89580       -0.88025        4.05834
H          0.89580        0.88025        4.05834
H         -0.54539        0.87362        1.89939
H         -0.54539       -0.87362        1.89939
H          1.95498        0.87362        1.77017
H          1.95498       -0.87362        1.77017
