8
output.out
C         -0.00003        0.00000        0.00162
C          0.00003        0.00000        1.52902
H          1.01576        0.00000       -0.39585
H         -0.50795       -0.87970       -0.39603
H         -0.50795        0.87970       -0.39603
H         -1.01576        0.00000        1.92649
H          0.50795       -0.87970        1.92667
H          0.50795        0.87970        1.92667
