7
output.out
C          0.00000        0.00000        0.00000
C          0.00000        0.00000        1.29999
C          0.00000        0.00000       -1.29999
H          0.93152        0.00000        1.85791
H         -0.93152        0.00000        1.85791
H          0.00000       -0.93152       -1.85791
H          0.00000        0.93152       -1.85791
