8
output.out
C         -0.00409        0.00000       -0.00783
O         -0.00391        0.00000        1.19267
O          1.13718        0.00000       -0.72277
H          1.86220        0.00000       -0.08358
C         -1.21312        0.00000       -0.88700
H         -2.10933        0.00000       -0.27388
H         -1.19767        0.87921       -1.53117
H         -1.19767       -0.87921       -1.53117
