10
output.out
O          0.00000        0.00000        0.01451
C          0.00000        0.00000        1.22205
C          1.28213        0.00000        2.01363
C         -1.28213        0.00000        2.01363
H          2.13617        0.00000        1.33936
H         -2.13617        0.00000        1.33936
H          1.32247       -0.87854        2.66241
H          1.32247        0.87854        2.66241
H         -1.32247        0.87854        2.66241
H         -1.32247       -0.87854        2.66241
