8
output.out
C          0.03482        0.39527        0.73679
N          0.03934       -0.85948        0.00000
C          0.03482        0.39527       -0.73679
H         -0.88176       -1.28084        0.00000
H          0.95017        0.61393        1.27583
H          0.95017        0.61393       -1.27583
H         -0.87650        0.69750        1.24331
H         -0.87650        0.69750       -1.24331
