7
output.out
O          0.00187        0.00000        0.01031
C         -0.00443        0.00000        1.21394
H          0.95289        0.00000        1.77557
C         -1.24166        0.00000        2.06307
H         -2.13793        0.00000        1.44779
H         -1.23528       -0.87597        2.71678
H         -1.23528        0.87597        2.71678
