6
output.out
C          0.00000        0.00000        0.00311
C          0.00000        0.00000        1.32782
H          0.92038        0.00000       -0.56671
H         -0.92038        0.00000       -0.56671
H          0.92038        0.00000        1.89765
H         -0.92038        0.00000        1.89765
