7
output.out
C          0.00085        0.00000       -0.00600
N          0.02095        0.00000        1.45707
H          0.98785        0.00000       -0.48535
H          0.50268       -0.81388        1.81631
H          0.50268        0.81388        1.81631
H         -0.54219       -0.87732       -0.35737
H         -0.54219        0.87732       -0.35737
