7
output.out
C          0.00000        0.00128        0.00001
N          0.00006       -0.00272        1.49794
O          1.08436        0.00110        2.05417
O         -1.08377       -0.03556        2.05413
H          0.01696       -1.04002       -0.31304
H         -0.91128        0.48158       -0.33598
H          0.89507        0.51114       -0.33597
