10
output.out
C         -0.00056        0.00000        0.00434
C          0.00130        0.00000        1.52593
N          1.31613        0.00000        2.14842
H         -1.01870        0.00000       -0.39231
H          0.51189        0.88312       -0.38585
H          0.51189       -0.88312       -0.38585
H         -0.54354       -0.87252        1.89679
H         -0.54354        0.87252        1.89679
H          1.84909        0.81533        1.87335
H          1.84909       -0.81533        1.87335
