6
output.out
C         -0.00003        0.00000        0.00147
C         -0.00000        0.00000        1.45398
N          0.00004        0.00000        2.59704
H          1.02269        0.00000       -0.36957
H         -0.51135       -0.88570       -0.36966
H         -0.51135        0.88570       -0.36966
