6
output.out
C          0.00198        0.00000       -0.00053
C          0.00926        0.00000        1.50578
H          1.01772        0.00000       -0.40152
H         -0.54494       -0.87710       -0.34509
H         -0.54494        0.87710       -0.34509
O          0.92746       -0.00000        2.24319
