7
output.out
C         -0.00766       -0.00000       -0.00626
O         -0.00215        0.00000        1.17183
F          1.15810        0.00000       -0.68919
C         -1.16221       -0.00000       -0.94411
H         -2.09119        0.00000       -0.38324
H         -1.10578        0.87911       -1.58454
H         -1.10578       -0.87911       -1.58454
