9
output.out
C          0.01580        0.00000        0.02386
S          0.01388        0.00000        1.81463
C          1.77923        0.00000        2.11109
H         -1.02492        0.00000       -0.30422
H          0.50537        0.89284       -0.37199
H          0.50537       -0.89284       -0.37199
H          1.92862        0.00000        3.19205
H          2.25124       -0.89294        1.69490
H          2.25124        0.89294        1.69490
