7
output.out
C          0.74096        0.79405        0.00000
S          0.00000       -0.83481        0.00000
C         -0.74096        0.79405        0.00000
H          1.24877        1.08067       -0.91461
H          1.24877        1.08067        0.91461
H         -1.24877        1.08067        0.91461
H         -1.24877        1.08067       -0.91461
