14
output.out
C         -0.00003        0.00000        0.00511
H         -0.00008        0.00000        1.10256
C          1.44877        0.00000       -0.46691
H          1.49564        0.00000       -1.56124
H          1.98463        0.88451       -0.11125
H          1.98463       -0.88451       -0.11125
C         -0.72447       -1.25474       -0.46680
H         -0.74778       -1.29553       -1.56115
H         -0.22608       -2.16083       -0.11114
H         -1.75845       -1.27686       -0.11130
C         -0.72447        1.25474       -0.46680
H         -0.74778        1.29553       -1.56115
H         -1.75845        1.27686       -0.11130
H         -0.22608        2.16083       -0.11114
