6
output.out
C          0.00330        0.00000        0.01264
S          0.00259        0.00000        1.81020
H          1.32804        0.00000        1.98171
H         -1.04144        0.00000       -0.29717
H          0.48038        0.89273       -0.38851
H          0.48038       -0.89273       -0.38850
