10
output.out
C          1.12653        0.00000        0.31240
C         -1.12653        0.00000        0.31240
C          0.00000       -0.73568       -0.33092
C          0.00000        0.73568       -0.33092
H          1.20782        0.00000        1.40133
H          2.07917        0.00000       -0.21282
H         -1.20782        0.00000        1.40133
H         -2.07917        0.00000       -0.21282
H          0.00000       -1.43661       -1.15179
H          0.00000        1.43661       -1.15179
