8
output.out
Si         0.00075        0.00000        0.00092
Si        -0.00075        0.00000        2.34932
H          1.39041        0.00000       -0.51547
H         -0.69473       -1.20406       -0.51369
H         -0.69473        1.20406       -0.51369
H         -1.39041        0.00000        2.86570
H          0.69473       -1.20406        2.86392
H          0.69473        1.20406        2.86392
