7
output.out
C          0.00136        0.00000        0.00407
C          0.00370        0.00000        1.33539
C          1.19962        0.00000        2.11168
H          0.91909        0.00000       -0.56673
H         -0.92938        0.00000       -0.54459
H         -0.92139        0.00000        1.89814
N          2.15299        0.00000        2.75860
